<?xml version="1.0" encoding="UTF-8"?>
<connections xmlns:xsi="http://www.w3.org/2001/XMLSchema-instance" xsi:noNamespaceSchemaLocation="http://sumo.dlr.de/xsd/connections_file.xsd">
    <connection from="east_in" to="west_out" fromLane="0" toLane="0"/>
    <connection from="east_in" to="north_out" fromLane="1" toLane="1"/> <!-- Left turn -->
    <connection from="west_in" to="east_out" fromLane="0" toLane="0"/>
    <connection from="west_in" to="south_out" fromLane="1" toLane="1"/> <!-- Left turn -->
    <connection from="north_in" to="south_out" fromLane="0" toLane="0"/>
    <connection from="north_in" to="east_out" fromLane="1" toLane="1"/> <!-- Left turn -->
    <connection from="south_in" to="north_out" fromLane="0" toLane="0"/>
    <connection from="south_in" to="west_out" fromLane="1" toLane="1"/> <!-- Left turn -->
</connections>