<?xml version="1.0" encoding="UTF-8"?>

<!-- generated on 2025-09-15 00:23:38 by Eclipse SUMO netconvert Version 1.24.0
<netconvertConfiguration xmlns:xsi="http://www.w3.org/2001/XMLSchema-instance" xsi:noNamespaceSchemaLocation="http://sumo.dlr.de/xsd/netconvertConfiguration.xsd">

    <input>
        <node-files value="single_intersection.nod.xml"/>
        <edge-files value="single_intersection.edg.xml"/>
        <connection-files value="single_intersection.con.xml"/>
        <tllogic-files value="single_intersection.tls.xml"/>
    </input>

    <output>
        <output-file value="single_intersection.net.xml"/>
    </output>

</netconvertConfiguration>
-->

<net version="1.20" junctionCornerDetail="5" limitTurnSpeed="5.50" xmlns:xsi="http://www.w3.org/2001/XMLSchema-instance" xsi:noNamespaceSchemaLocation="http://sumo.dlr.de/xsd/net_file.xsd">

    <location netOffset="200.00,200.00" convBoundary="0.00,0.00,400.00,400.00" origBoundary="-200.00,-200.00,200.00,200.00" projParameter="!"/>

    <edge id=":center_0" function="internal">
        <lane id=":center_0_0" index="0" speed="13.89" length="20.80" shape="195.20,210.40 195.20,189.60"/>
    </edge>
    <edge id=":center_1" function="internal">
        <lane id=":center_1_0" index="0" speed="9.26" length="19.35" shape="198.40,210.40 199.15,205.15 201.40,201.40 205.15,199.15 210.40,198.40"/>
    </edge>
    <edge id=":center_2" function="internal">
        <lane id=":center_2_0" index="0" speed="13.89" length="20.80" shape="210.40,204.80 189.60,204.80"/>
    </edge>
    <edge id=":center_3" function="internal">
        <lane id=":center_3_0" index="0" speed="8.00" length="14.19" shape="210.40,201.60 206.55,202.15 203.80,203.80 202.15,206.55 201.60,210.40"/>
    </edge>
    <edge id=":center_4" function="internal">
        <lane id=":center_4_0" index="0" speed="13.89" length="20.80" shape="204.80,189.60 204.80,210.40"/>
    </edge>
    <edge id=":center_5" function="internal">
        <lane id=":center_5_0" index="0" speed="9.26" length="19.35" shape="201.60,189.60 200.85,194.85 198.60,198.60 194.85,200.85 189.60,201.60"/>
    </edge>
    <edge id=":center_6" function="internal">
        <lane id=":center_6_0" index="0" speed="13.89" length="20.80" shape="189.60,195.20 210.40,195.20"/>
    </edge>
    <edge id=":center_7" function="internal">
        <lane id=":center_7_0" index="0" speed="8.00" length="14.19" shape="189.60,198.40 193.45,197.85 196.20,196.20 197.85,193.45 198.40,189.60"/>
    </edge>
    <edge id=":east_0" function="internal">
        <lane id=":east_0_0" index="0" speed="3.65" length="4.67" shape="400.00,198.40 401.20,199.20 401.60,200.00 401.20,200.80 400.00,201.60"/>
    </edge>
    <edge id=":north_0" function="internal">
        <lane id=":north_0_0" index="0" speed="3.65" length="4.67" shape="201.60,400.00 200.80,401.20 200.00,401.60 199.20,401.20 198.40,400.00"/>
    </edge>
    <edge id=":south_0" function="internal">
        <lane id=":south_0_0" index="0" speed="3.65" length="4.67" shape="198.40,0.00 199.20,-1.20 200.00,-1.60 200.80,-1.20 201.60,0.00"/>
    </edge>
    <edge id=":west_0" function="internal">
        <lane id=":west_0_0" index="0" speed="3.65" length="4.67" shape="0.00,201.60 -1.20,200.80 -1.60,200.00 -1.20,199.20 0.00,198.40"/>
    </edge>

    <edge id="east_in" from="east" to="center" priority="-1" length="200.00">
        <lane id="east_in_0" index="0" speed="13.89" length="200.00" shape="400.00,204.80 210.40,204.80"/>
        <lane id="east_in_1" index="1" speed="13.89" length="200.00" shape="400.00,201.60 210.40,201.60"/>
    </edge>
    <edge id="east_out" from="center" to="east" priority="-1" length="200.00">
        <lane id="east_out_0" index="0" speed="13.89" length="200.00" shape="210.40,195.20 400.00,195.20"/>
        <lane id="east_out_1" index="1" speed="13.89" length="200.00" shape="210.40,198.40 400.00,198.40"/>
    </edge>
    <edge id="north_in" from="north" to="center" priority="-1" length="200.00">
        <lane id="north_in_0" index="0" speed="13.89" length="200.00" shape="195.20,400.00 195.20,210.40"/>
        <lane id="north_in_1" index="1" speed="13.89" length="200.00" shape="198.40,400.00 198.40,210.40"/>
    </edge>
    <edge id="north_out" from="center" to="north" priority="-1" length="200.00">
        <lane id="north_out_0" index="0" speed="13.89" length="200.00" shape="204.80,210.40 204.80,400.00"/>
        <lane id="north_out_1" index="1" speed="13.89" length="200.00" shape="201.60,210.40 201.60,400.00"/>
    </edge>
    <edge id="south_in" from="south" to="center" priority="-1" length="200.00">
        <lane id="south_in_0" index="0" speed="13.89" length="200.00" shape="204.80,0.00 204.80,189.60"/>
        <lane id="south_in_1" index="1" speed="13.89" length="200.00" shape="201.60,0.00 201.60,189.60"/>
    </edge>
    <edge id="south_out" from="center" to="south" priority="-1" length="200.00">
        <lane id="south_out_0" index="0" speed="13.89" length="200.00" shape="195.20,189.60 195.20,0.00"/>
        <lane id="south_out_1" index="1" speed="13.89" length="200.00" shape="198.40,189.60 198.40,0.00"/>
    </edge>
    <edge id="west_in" from="west" to="center" priority="-1" length="200.00">
        <lane id="west_in_0" index="0" speed="13.89" length="200.00" shape="0.00,195.20 189.60,195.20"/>
        <lane id="west_in_1" index="1" speed="13.89" length="200.00" shape="0.00,198.40 189.60,198.40"/>
    </edge>
    <edge id="west_out" from="center" to="west" priority="-1" length="200.00">
        <lane id="west_out_0" index="0" speed="13.89" length="200.00" shape="189.60,204.80 0.00,204.80"/>
        <lane id="west_out_1" index="1" speed="13.89" length="200.00" shape="189.60,201.60 0.00,201.60"/>
    </edge>

    <tlLogic id="center" type="static" programID="0" offset="0">
        <phase duration="27" state="rrrrGrGr"/>
        <phase duration="3"  state="rrrryryr"/>
        <phase duration="27" state="rrrrrGrG"/>
        <phase duration="3"  state="rrrryryr"/>
        <phase duration="27" state="GrGrrrrr"/>
        <phase duration="3"  state="yryrrrrr"/>
        <phase duration="27" state="rGrGrrrr"/>
        <phase duration="3"  state="ryryrrrr"/>
    </tlLogic>

    <junction id="center" type="traffic_light" x="200.00" y="200.00" incLanes="north_in_0 north_in_1 east_in_0 east_in_1 south_in_0 south_in_1 west_in_0 west_in_1" intLanes=":center_0_0 :center_1_0 :center_2_0 :center_3_0 :center_4_0 :center_5_0 :center_6_0 :center_7_0" shape="193.60,210.40 206.40,210.40 206.84,208.18 207.40,207.40 208.18,206.84 209.18,206.51 210.40,206.40 210.40,193.60 208.18,193.16 207.40,192.60 206.84,191.82 206.51,190.82 206.40,189.60 193.60,189.60 193.16,191.82 192.60,192.60 191.82,193.16 190.82,193.49 189.60,193.60 189.60,206.40 191.82,206.84 192.60,207.40 193.16,208.18 193.49,209.18">
        <request index="0" response="00000000" foes="01100100" cont="0"/>
        <request index="1" response="00010000" foes="00010100" cont="0"/>
        <request index="2" response="00010011" foes="00011011" cont="0"/>
        <request index="3" response="00000100" foes="00000100" cont="0"/>
        <request index="4" response="00000000" foes="01000110" cont="0"/>
        <request index="5" response="00000001" foes="01000001" cont="0"/>
        <request index="6" response="00110001" foes="10110001" cont="0"/>
        <request index="7" response="01000000" foes="01000000" cont="0"/>
    </junction>
    <junction id="east" type="priority" x="400.00" y="200.00" incLanes="east_out_0 east_out_1" intLanes=":east_0_0" shape="400.00,200.00 400.00,193.60 400.00,200.00">
        <request index="0" response="0" foes="0" cont="0"/>
    </junction>
    <junction id="north" type="priority" x="200.00" y="400.00" incLanes="north_out_0 north_out_1" intLanes=":north_0_0" shape="200.00,400.00 206.40,400.00 200.00,400.00">
        <request index="0" response="0" foes="0" cont="0"/>
    </junction>
    <junction id="south" type="priority" x="200.00" y="0.00" incLanes="south_out_0 south_out_1" intLanes=":south_0_0" shape="200.00,0.00 193.60,0.00 200.00,0.00">
        <request index="0" response="0" foes="0" cont="0"/>
    </junction>
    <junction id="west" type="priority" x="0.00" y="200.00" incLanes="west_out_0 west_out_1" intLanes=":west_0_0" shape="0.00,200.00 0.00,206.40 0.00,200.00">
        <request index="0" response="0" foes="0" cont="0"/>
    </junction>

    <connection from="east_in" to="west_out" fromLane="0" toLane="0" via=":center_2_0" tl="center" linkIndex="2" dir="s" state="o"/>
    <connection from="east_in" to="north_out" fromLane="1" toLane="1" via=":center_3_0" tl="center" linkIndex="3" dir="r" state="o"/>
    <connection from="east_out" to="east_in" fromLane="1" toLane="1" via=":east_0_0" dir="t" state="M"/>
    <connection from="north_in" to="south_out" fromLane="0" toLane="0" via=":center_0_0" tl="center" linkIndex="0" dir="s" state="O"/>
    <connection from="north_in" to="east_out" fromLane="1" toLane="1" via=":center_1_0" tl="center" linkIndex="1" dir="l" state="o"/>
    <connection from="north_out" to="north_in" fromLane="1" toLane="1" via=":north_0_0" dir="t" state="M"/>
    <connection from="south_in" to="north_out" fromLane="0" toLane="0" via=":center_4_0" tl="center" linkIndex="4" dir="s" state="O"/>
    <connection from="south_in" to="west_out" fromLane="1" toLane="1" via=":center_5_0" tl="center" linkIndex="5" dir="l" state="o"/>
    <connection from="south_out" to="south_in" fromLane="1" toLane="1" via=":south_0_0" dir="t" state="M"/>
    <connection from="west_in" to="east_out" fromLane="0" toLane="0" via=":center_6_0" tl="center" linkIndex="6" dir="s" state="o"/>
    <connection from="west_in" to="south_out" fromLane="1" toLane="1" via=":center_7_0" tl="center" linkIndex="7" dir="r" state="o"/>
    <connection from="west_out" to="west_in" fromLane="1" toLane="1" via=":west_0_0" dir="t" state="M"/>

    <connection from=":center_0" to="south_out" fromLane="0" toLane="0" dir="s" state="M"/>
    <connection from=":center_1" to="east_out" fromLane="0" toLane="1" dir="l" state="M"/>
    <connection from=":center_2" to="west_out" fromLane="0" toLane="0" dir="s" state="M"/>
    <connection from=":center_3" to="north_out" fromLane="0" toLane="1" dir="r" state="M"/>
    <connection from=":center_4" to="north_out" fromLane="0" toLane="0" dir="s" state="M"/>
    <connection from=":center_5" to="west_out" fromLane="0" toLane="1" dir="l" state="M"/>
    <connection from=":center_6" to="east_out" fromLane="0" toLane="0" dir="s" state="M"/>
    <connection from=":center_7" to="south_out" fromLane="0" toLane="1" dir="r" state="M"/>
    <connection from=":east_0" to="east_in" fromLane="0" toLane="1" dir="t" state="M"/>
    <connection from=":north_0" to="north_in" fromLane="0" toLane="1" dir="t" state="M"/>
    <connection from=":south_0" to="south_in" fromLane="0" toLane="1" dir="t" state="M"/>
    <connection from=":west_0" to="west_in" fromLane="0" toLane="1" dir="t" state="M"/>

</net>
